*SPEF "IEEE 1481-2009"
*DESIGN "soc_sram"
*DATE "Sun Mar 08 08:27:05 2026"
*VENDOR "Byteflow EDA"
*PROGRAM "Byteflow SpefEngine"
*VERSION "5.0"
*DESIGN_FLOW "NETLIST_TYPE_VERILOG"
*DIVIDER /
*DELIMITER :
*BUS_DELIMITER [ ]
*T_UNIT 1 PS
*C_UNIT 1 FF
*R_UNIT 1 OHM
*L_UNIT 1 HENRY

*NAME_MAP
*1 clk_buf
*2 dout_raw
*3 addr_buf
*4 en_buf
*5 din_buf
*6 dout_inv

*PORTS

*D_NET *1 1.9148
*CONN
*O b_clk:Y
*I mem:clk
*CAP
1 *1:1 0.050000
2 *1:2 0.033600
3 *1:3 0.033600
4 *1:4 0.033600
5 *1:5 0.033600
6 *1:6 0.033600
7 *1:7 0.033600
8 *1:8 0.033600
9 *1:9 0.033600
10 *1:10 0.033600
11 *1:11 0.033600
12 *1:12 0.033600
13 *1:13 0.033600
14 *1:14 0.033600
15 *1:15 0.033600
16 *1:16 0.033600
17 *1:17 0.033600
18 *1:18 0.033600
19 *1:19 0.033600
20 *1:20 0.033600
21 *1:21 0.033600
22 *1:22 0.033600
23 *1:23 0.033600
24 *1:24 0.033600
25 *1:25 0.033600
26 *1:26 0.033600
27 *1:27 0.033600
28 *1:28 0.033600
29 *1:29 0.033600
30 *1:30 0.033600
31 *1:31 0.033600
32 *1:32 0.033600
33 *1:33 0.033600
34 *1:34 0.033600
35 *1:35 0.033600
36 *1:36 0.033600
37 *1:37 0.033600
38 *1:38 0.033600
39 *1:39 0.039200
40 *1:40 0.039200
41 *1:41 0.039200
42 *1:42 0.039200
43 *1:43 0.039200
44 *1:44 0.039200
45 *1:45 0.039200
46 *1:46 0.039200
47 *1:47 0.039200
48 *1:48 0.039200
49 *1:49 0.039200
50 *1:50 0.039200
51 *1:51 0.039200
52 *1:52 0.039200
53 *1:53 0.039200
54 *1:54 0.033600
*RES
1 *1:1 *1:2 5.000000
2 *1:2 *1:3 0.140000
3 *1:3 *1:4 0.140000
4 *1:4 *1:5 0.140000
5 *1:5 *1:6 0.140000
6 *1:6 *1:7 0.140000
7 *1:7 *1:8 0.140000
8 *1:8 *1:9 0.140000
9 *1:9 *1:10 0.140000
10 *1:10 *1:11 0.140000
11 *1:11 *1:12 0.140000
12 *1:12 *1:13 0.140000
13 *1:13 *1:14 0.140000
14 *1:14 *1:15 0.140000
15 *1:15 *1:16 0.140000
16 *1:16 *1:17 0.140000
17 *1:17 *1:18 0.140000
18 *1:18 *1:19 0.140000
19 *1:19 *1:20 0.140000
20 *1:20 *1:21 0.140000
21 *1:21 *1:22 0.140000
22 *1:22 *1:23 0.140000
23 *1:23 *1:24 0.140000
24 *1:24 *1:25 0.140000
25 *1:25 *1:26 0.140000
26 *1:26 *1:27 0.140000
27 *1:27 *1:28 0.140000
28 *1:28 *1:29 0.140000
29 *1:29 *1:30 0.140000
30 *1:30 *1:31 0.140000
31 *1:31 *1:32 0.140000
32 *1:32 *1:33 0.140000
33 *1:33 *1:34 0.140000
34 *1:34 *1:35 0.140000
35 *1:35 *1:36 0.140000
36 *1:36 *1:37 0.140000
37 *1:37 *1:38 0.140000
38 *1:38 *1:39 0.140000
39 *1:39 *1:40 0.168000
40 *1:40 *1:41 0.168000
41 *1:41 *1:42 0.168000
42 *1:42 *1:43 0.168000
43 *1:43 *1:44 0.168000
44 *1:44 *1:45 0.168000
45 *1:45 *1:46 0.168000
46 *1:46 *1:47 0.168000
47 *1:47 *1:48 0.168000
48 *1:48 *1:49 0.168000
49 *1:49 *1:50 0.168000
50 *1:50 *1:51 0.168000
51 *1:51 *1:52 0.168000
52 *1:52 *1:53 0.168000
53 *1:53 *1:54 0.168000
54 *1:54 *1:55 0.140000
*END

*D_NET *2 4.6248
*CONN
*O mem:dout
*I n_out:A
*CAP
1 *2:1 0.050000
2 *2:2 0.033600
3 *2:3 0.033600
4 *2:4 0.033600
5 *2:5 0.033600
6 *2:6 0.033600
7 *2:7 0.033600
8 *2:8 0.033600
9 *2:9 0.033600
10 *2:10 0.033600
11 *2:11 0.033600
12 *2:12 0.033600
13 *2:13 0.033600
14 *2:14 0.033600
15 *2:15 0.033600
16 *2:16 0.033600
17 *2:17 0.033600
18 *2:18 0.033600
19 *2:19 0.033600
20 *2:20 0.033600
21 *2:21 0.033600
22 *2:22 0.033600
23 *2:23 0.033600
24 *2:24 0.033600
25 *2:25 0.033600
26 *2:26 0.033600
27 *2:27 0.033600
28 *2:28 0.033600
29 *2:29 0.033600
30 *2:30 0.033600
31 *2:31 0.033600
32 *2:32 0.033600
33 *2:33 0.033600
34 *2:34 0.033600
35 *2:35 0.033600
36 *2:36 0.033600
37 *2:37 0.033600
38 *2:38 0.033600
39 *2:39 0.033600
40 *2:40 0.033600
41 *2:41 0.033600
42 *2:42 0.033600
43 *2:43 0.033600
44 *2:44 0.033600
45 *2:45 0.033600
46 *2:46 0.033600
47 *2:47 0.033600
48 *2:48 0.033600
49 *2:49 0.033600
50 *2:50 0.033600
51 *2:51 0.033600
52 *2:52 0.033600
53 *2:53 0.033600
54 *2:54 0.033600
55 *2:55 0.033600
56 *2:56 0.033600
57 *2:57 0.033600
58 *2:58 0.033600
59 *2:59 0.033600
60 *2:60 0.033600
61 *2:61 0.033600
62 *2:62 0.033600
63 *2:63 0.033600
64 *2:64 0.033600
65 *2:65 0.033600
66 *2:66 0.033600
67 *2:67 0.033600
68 *2:68 0.033600
69 *2:69 0.033600
70 *2:70 0.033600
71 *2:71 0.033600
72 *2:72 0.033600
73 *2:73 0.033600
74 *2:74 0.033600
75 *2:75 0.033600
76 *2:76 0.033600
77 *2:77 0.033600
78 *2:78 0.033600
79 *2:79 0.033600
80 *2:80 0.033600
81 *2:81 0.033600
82 *2:82 0.033600
83 *2:83 0.033600
84 *2:84 0.033600
85 *2:85 0.033600
86 *2:86 0.033600
87 *2:87 0.033600
88 *2:88 0.033600
89 *2:89 0.033600
90 *2:90 0.033600
91 *2:91 0.033600
92 *2:92 0.033600
93 *2:93 0.033600
94 *2:94 0.033600
95 *2:95 0.033600
96 *2:96 0.033600
97 *2:97 0.039200
98 *2:98 0.039200
99 *2:99 0.039200
100 *2:100 0.039200
101 *2:101 0.039200
102 *2:102 0.039200
103 *2:103 0.039200
104 *2:104 0.039200
105 *2:105 0.039200
106 *2:106 0.039200
107 *2:107 0.039200
108 *2:108 0.039200
109 *2:109 0.039200
110 *2:110 0.039200
111 *2:111 0.039200
112 *2:112 0.039200
113 *2:113 0.039200
114 *2:114 0.039200
115 *2:115 0.039200
116 *2:116 0.039200
117 *2:117 0.039200
118 *2:118 0.039200
119 *2:119 0.039200
120 *2:120 0.039200
121 *2:121 0.039200
122 *2:122 0.039200
123 *2:123 0.039200
124 *2:124 0.039200
125 *2:125 0.039200
126 *2:126 0.039200
127 *2:127 0.039200
128 *2:128 0.039200
129 *2:129 0.039200
130 *2:130 0.039200
131 *2:131 0.050000
*RES
1 *2:1 *2:2 5.000000
2 *2:2 *2:3 0.140000
3 *2:3 *2:4 0.140000
4 *2:4 *2:5 0.140000
5 *2:5 *2:6 0.140000
6 *2:6 *2:7 0.140000
7 *2:7 *2:8 0.140000
8 *2:8 *2:9 0.140000
9 *2:9 *2:10 0.140000
10 *2:10 *2:11 0.140000
11 *2:11 *2:12 0.140000
12 *2:12 *2:13 0.140000
13 *2:13 *2:14 0.140000
14 *2:14 *2:15 0.140000
15 *2:15 *2:16 0.140000
16 *2:16 *2:17 0.140000
17 *2:17 *2:18 0.140000
18 *2:18 *2:19 0.140000
19 *2:19 *2:20 0.140000
20 *2:20 *2:21 0.140000
21 *2:21 *2:22 0.140000
22 *2:22 *2:23 0.140000
23 *2:23 *2:24 0.140000
24 *2:24 *2:25 0.140000
25 *2:25 *2:26 0.140000
26 *2:26 *2:27 0.140000
27 *2:27 *2:28 0.140000
28 *2:28 *2:29 0.140000
29 *2:29 *2:30 0.140000
30 *2:30 *2:31 0.140000
31 *2:31 *2:32 0.140000
32 *2:32 *2:33 0.140000
33 *2:33 *2:34 0.140000
34 *2:34 *2:35 0.140000
35 *2:35 *2:36 0.140000
36 *2:36 *2:37 0.140000
37 *2:37 *2:38 0.140000
38 *2:38 *2:39 0.140000
39 *2:39 *2:40 0.140000
40 *2:40 *2:41 0.140000
41 *2:41 *2:42 0.140000
42 *2:42 *2:43 0.140000
43 *2:43 *2:44 0.140000
44 *2:44 *2:45 0.140000
45 *2:45 *2:46 0.140000
46 *2:46 *2:47 0.140000
47 *2:47 *2:48 0.140000
48 *2:48 *2:49 0.140000
49 *2:49 *2:50 0.140000
50 *2:50 *2:51 0.140000
51 *2:51 *2:52 0.140000
52 *2:52 *2:53 0.140000
53 *2:53 *2:54 0.140000
54 *2:54 *2:55 0.140000
55 *2:55 *2:56 0.140000
56 *2:56 *2:57 0.140000
57 *2:57 *2:58 0.140000
58 *2:58 *2:59 0.140000
59 *2:59 *2:60 0.140000
60 *2:60 *2:61 0.140000
61 *2:61 *2:62 0.140000
62 *2:62 *2:63 0.140000
63 *2:63 *2:64 0.140000
64 *2:64 *2:65 0.140000
65 *2:65 *2:66 0.140000
66 *2:66 *2:67 0.140000
67 *2:67 *2:68 0.140000
68 *2:68 *2:69 0.140000
69 *2:69 *2:70 0.140000
70 *2:70 *2:71 0.140000
71 *2:71 *2:72 0.140000
72 *2:72 *2:73 0.140000
73 *2:73 *2:74 0.140000
74 *2:74 *2:75 0.140000
75 *2:75 *2:76 0.140000
76 *2:76 *2:77 0.140000
77 *2:77 *2:78 0.140000
78 *2:78 *2:79 0.140000
79 *2:79 *2:80 0.140000
80 *2:80 *2:81 0.140000
81 *2:81 *2:82 0.140000
82 *2:82 *2:83 0.140000
83 *2:83 *2:84 0.140000
84 *2:84 *2:85 0.140000
85 *2:85 *2:86 0.140000
86 *2:86 *2:87 0.140000
87 *2:87 *2:88 0.140000
88 *2:88 *2:89 0.140000
89 *2:89 *2:90 0.140000
90 *2:90 *2:91 0.140000
91 *2:91 *2:92 0.140000
92 *2:92 *2:93 0.140000
93 *2:93 *2:94 0.140000
94 *2:94 *2:95 0.140000
95 *2:95 *2:96 0.140000
96 *2:96 *2:97 0.140000
97 *2:97 *2:98 0.168000
98 *2:98 *2:99 0.168000
99 *2:99 *2:100 0.168000
100 *2:100 *2:101 0.168000
101 *2:101 *2:102 0.168000
102 *2:102 *2:103 0.168000
103 *2:103 *2:104 0.168000
104 *2:104 *2:105 0.168000
105 *2:105 *2:106 0.168000
106 *2:106 *2:107 0.168000
107 *2:107 *2:108 0.168000
108 *2:108 *2:109 0.168000
109 *2:109 *2:110 0.168000
110 *2:110 *2:111 0.168000
111 *2:111 *2:112 0.168000
112 *2:112 *2:113 0.168000
113 *2:113 *2:114 0.168000
114 *2:114 *2:115 0.168000
115 *2:115 *2:116 0.168000
116 *2:116 *2:117 0.168000
117 *2:117 *2:118 0.168000
118 *2:118 *2:119 0.168000
119 *2:119 *2:120 0.168000
120 *2:120 *2:121 0.168000
121 *2:121 *2:122 0.168000
122 *2:122 *2:123 0.168000
123 *2:123 *2:124 0.168000
124 *2:124 *2:125 0.168000
125 *2:125 *2:126 0.168000
126 *2:126 *2:127 0.168000
127 *2:127 *2:128 0.168000
128 *2:128 *2:129 0.168000
129 *2:129 *2:130 0.168000
130 *2:130 *2:131 0.168000
131 *2:131 *2:132 5.000000
*END

*D_NET *3 4.1716
*CONN
*O b_addr:Y
*I mem:addr
*CAP
1 *3:1 0.039200
2 *3:2 0.039200
3 *3:3 0.039200
4 *3:4 0.039200
5 *3:5 0.039200
6 *3:6 0.039200
7 *3:7 0.039200
8 *3:8 0.039200
9 *3:9 0.039200
10 *3:10 0.039200
11 *3:11 0.039200
12 *3:12 0.039200
13 *3:13 0.039200
14 *3:14 0.039200
15 *3:15 0.039200
16 *3:16 0.039200
17 *3:17 0.039200
18 *3:18 0.039200
19 *3:19 0.039200
20 *3:20 0.039200
21 *3:21 0.039200
22 *3:22 0.039200
23 *3:23 0.039200
24 *3:24 0.039200
25 *3:25 0.039200
26 *3:26 0.039200
27 *3:27 0.039200
28 *3:28 0.039200
29 *3:29 0.039200
30 *3:30 0.039200
31 *3:31 0.039200
32 *3:32 0.039200
33 *3:33 0.039200
34 *3:34 0.039200
35 *3:35 0.039200
36 *3:36 0.039200
37 *3:37 0.039200
38 *3:38 0.039200
39 *3:39 0.039200
40 *3:40 0.039200
41 *3:41 0.039200
42 *3:42 0.039200
43 *3:43 0.039200
44 *3:44 0.039200
45 *3:45 0.039200
46 *3:46 0.039200
47 *3:47 0.039200
48 *3:48 0.039200
49 *3:49 0.039200
50 *3:50 0.039200
51 *3:51 0.039200
52 *3:52 0.039200
53 *3:53 0.039200
54 *3:54 0.039200
55 *3:55 0.039200
56 *3:56 0.039200
57 *3:57 0.039200
58 *3:58 0.039200
59 *3:59 0.033600
60 *3:60 0.033600
61 *3:61 0.033600
62 *3:62 0.033600
63 *3:63 0.033600
64 *3:64 0.033600
65 *3:65 0.033600
66 *3:66 0.033600
67 *3:67 0.033600
68 *3:68 0.033600
69 *3:69 0.033600
70 *3:70 0.033600
71 *3:71 0.033600
72 *3:72 0.033600
73 *3:73 0.033600
74 *3:74 0.033600
75 *3:75 0.033600
76 *3:76 0.033600
77 *3:77 0.033600
78 *3:78 0.033600
79 *3:79 0.033600
80 *3:80 0.033600
81 *3:81 0.033600
82 *3:82 0.033600
83 *3:83 0.033600
84 *3:84 0.033600
85 *3:85 0.033600
86 *3:86 0.033600
87 *3:87 0.033600
88 *3:88 0.033600
89 *3:89 0.033600
90 *3:90 0.033600
91 *3:91 0.033600
92 *3:92 0.033600
93 *3:93 0.033600
94 *3:94 0.033600
95 *3:95 0.033600
96 *3:96 0.033600
97 *3:97 0.033600
98 *3:98 0.033600
99 *3:99 0.033600
100 *3:100 0.033600
101 *3:101 0.033600
102 *3:102 0.033600
103 *3:103 0.033600
104 *3:104 0.033600
105 *3:105 0.033600
106 *3:106 0.033600
107 *3:107 0.033600
108 *3:108 0.033600
109 *3:109 0.033600
110 *3:110 0.033600
111 *3:111 0.033600
112 *3:112 0.033600
113 *3:113 0.033600
114 *3:114 0.050000
*RES
1 *3:1 *3:2 0.168000
2 *3:2 *3:3 0.168000
3 *3:3 *3:4 0.168000
4 *3:4 *3:5 0.168000
5 *3:5 *3:6 0.168000
6 *3:6 *3:7 0.168000
7 *3:7 *3:8 0.168000
8 *3:8 *3:9 0.168000
9 *3:9 *3:10 0.168000
10 *3:10 *3:11 0.168000
11 *3:11 *3:12 0.168000
12 *3:12 *3:13 0.168000
13 *3:13 *3:14 0.168000
14 *3:14 *3:15 0.168000
15 *3:15 *3:16 0.168000
16 *3:16 *3:17 0.168000
17 *3:17 *3:18 0.168000
18 *3:18 *3:19 0.168000
19 *3:19 *3:20 0.168000
20 *3:20 *3:21 0.168000
21 *3:21 *3:22 0.168000
22 *3:22 *3:23 0.168000
23 *3:23 *3:24 0.168000
24 *3:24 *3:25 0.168000
25 *3:25 *3:26 0.168000
26 *3:26 *3:27 0.168000
27 *3:27 *3:28 0.168000
28 *3:28 *3:29 0.168000
29 *3:29 *3:30 0.168000
30 *3:30 *3:31 0.168000
31 *3:31 *3:32 0.168000
32 *3:32 *3:33 0.168000
33 *3:33 *3:34 0.168000
34 *3:34 *3:35 0.168000
35 *3:35 *3:36 0.168000
36 *3:36 *3:37 0.168000
37 *3:37 *3:38 0.168000
38 *3:38 *3:39 0.168000
39 *3:39 *3:40 0.168000
40 *3:40 *3:41 0.168000
41 *3:41 *3:42 0.168000
42 *3:42 *3:43 0.168000
43 *3:43 *3:44 0.168000
44 *3:44 *3:45 0.168000
45 *3:45 *3:46 0.168000
46 *3:46 *3:47 0.168000
47 *3:47 *3:48 0.168000
48 *3:48 *3:49 0.168000
49 *3:49 *3:50 0.168000
50 *3:50 *3:51 0.168000
51 *3:51 *3:52 0.168000
52 *3:52 *3:53 0.168000
53 *3:53 *3:54 0.168000
54 *3:54 *3:55 0.168000
55 *3:55 *3:56 0.168000
56 *3:56 *3:57 0.168000
57 *3:57 *3:58 0.168000
58 *3:58 *3:59 0.168000
59 *3:59 *3:60 0.140000
60 *3:60 *3:61 0.140000
61 *3:61 *3:62 0.140000
62 *3:62 *3:63 0.140000
63 *3:63 *3:64 0.140000
64 *3:64 *3:65 0.140000
65 *3:65 *3:66 0.140000
66 *3:66 *3:67 0.140000
67 *3:67 *3:68 0.140000
68 *3:68 *3:69 0.140000
69 *3:69 *3:70 0.140000
70 *3:70 *3:71 0.140000
71 *3:71 *3:72 0.140000
72 *3:72 *3:73 0.140000
73 *3:73 *3:74 0.140000
74 *3:74 *3:75 0.140000
75 *3:75 *3:76 0.140000
76 *3:76 *3:77 0.140000
77 *3:77 *3:78 0.140000
78 *3:78 *3:79 0.140000
79 *3:79 *3:80 0.140000
80 *3:80 *3:81 0.140000
81 *3:81 *3:82 0.140000
82 *3:82 *3:83 0.140000
83 *3:83 *3:84 0.140000
84 *3:84 *3:85 0.140000
85 *3:85 *3:86 0.140000
86 *3:86 *3:87 0.140000
87 *3:87 *3:88 0.140000
88 *3:88 *3:89 0.140000
89 *3:89 *3:90 0.140000
90 *3:90 *3:91 0.140000
91 *3:91 *3:92 0.140000
92 *3:92 *3:93 0.140000
93 *3:93 *3:94 0.140000
94 *3:94 *3:95 0.140000
95 *3:95 *3:96 0.140000
96 *3:96 *3:97 0.140000
97 *3:97 *3:98 0.140000
98 *3:98 *3:99 0.140000
99 *3:99 *3:100 0.140000
100 *3:100 *3:101 0.140000
101 *3:101 *3:102 0.140000
102 *3:102 *3:103 0.140000
103 *3:103 *3:104 0.140000
104 *3:104 *3:105 0.140000
105 *3:105 *3:106 0.140000
106 *3:106 *3:107 0.140000
107 *3:107 *3:108 0.140000
108 *3:108 *3:109 0.140000
109 *3:109 *3:110 0.140000
110 *3:110 *3:111 0.140000
111 *3:111 *3:112 0.140000
112 *3:112 *3:113 0.140000
113 *3:113 *3:114 0.140000
114 *3:114 *3:115 5.000000
*END

*D_NET *4 1.6000
*CONN
*O b_en:Y
*I mem:en
*CAP
1 *4:1 0.050000
2 *4:2 0.050000
3 *4:3 0.039200
4 *4:4 0.039200
5 *4:5 0.039200
6 *4:6 0.039200
7 *4:7 0.050000
8 *4:8 0.033600
9 *4:9 0.033600
10 *4:10 0.033600
11 *4:11 0.033600
12 *4:12 0.033600
13 *4:13 0.033600
14 *4:14 0.033600
15 *4:15 0.033600
16 *4:16 0.033600
17 *4:17 0.033600
18 *4:18 0.033600
19 *4:19 0.033600
20 *4:20 0.033600
21 *4:21 0.033600
22 *4:22 0.033600
23 *4:23 0.033600
24 *4:24 0.033600
25 *4:25 0.033600
26 *4:26 0.033600
27 *4:27 0.033600
28 *4:28 0.033600
29 *4:29 0.033600
30 *4:30 0.033600
31 *4:31 0.033600
32 *4:32 0.033600
33 *4:33 0.033600
34 *4:34 0.033600
35 *4:35 0.033600
36 *4:36 0.033600
37 *4:37 0.033600
38 *4:38 0.033600
39 *4:39 0.033600
40 *4:40 0.033600
41 *4:41 0.033600
42 *4:42 0.033600
43 *4:43 0.033600
44 *4:44 0.033600
45 *4:45 0.050000
*RES
1 *4:1 *4:2 5.000000
2 *4:2 *4:3 5.000000
3 *4:3 *4:4 0.168000
4 *4:4 *4:5 0.168000
5 *4:5 *4:6 0.168000
6 *4:6 *4:7 0.168000
7 *4:7 *4:8 5.000000
8 *4:8 *4:9 0.140000
9 *4:9 *4:10 0.140000
10 *4:10 *4:11 0.140000
11 *4:11 *4:12 0.140000
12 *4:12 *4:13 0.140000
13 *4:13 *4:14 0.140000
14 *4:14 *4:15 0.140000
15 *4:15 *4:16 0.140000
16 *4:16 *4:17 0.140000
17 *4:17 *4:18 0.140000
18 *4:18 *4:19 0.140000
19 *4:19 *4:20 0.140000
20 *4:20 *4:21 0.140000
21 *4:21 *4:22 0.140000
22 *4:22 *4:23 0.140000
23 *4:23 *4:24 0.140000
24 *4:24 *4:25 0.140000
25 *4:25 *4:26 0.140000
26 *4:26 *4:27 0.140000
27 *4:27 *4:28 0.140000
28 *4:28 *4:29 0.140000
29 *4:29 *4:30 0.140000
30 *4:30 *4:31 0.140000
31 *4:31 *4:32 0.140000
32 *4:32 *4:33 0.140000
33 *4:33 *4:34 0.140000
34 *4:34 *4:35 0.140000
35 *4:35 *4:36 0.140000
36 *4:36 *4:37 0.140000
37 *4:37 *4:38 0.140000
38 *4:38 *4:39 0.140000
39 *4:39 *4:40 0.140000
40 *4:40 *4:41 0.140000
41 *4:41 *4:42 0.140000
42 *4:42 *4:43 0.140000
43 *4:43 *4:44 0.140000
44 *4:44 *4:45 0.140000
45 *4:45 *4:46 5.000000
*END

*D_NET *5 1.1136
*CONN
*O b_din:Y
*I mem:din
*CAP
1 *5:1 0.050000
2 *5:2 0.039200
3 *5:3 0.033600
4 *5:4 0.033600
5 *5:5 0.033600
6 *5:6 0.033600
7 *5:7 0.033600
8 *5:8 0.033600
9 *5:9 0.033600
10 *5:10 0.033600
11 *5:11 0.033600
12 *5:12 0.033600
13 *5:13 0.033600
14 *5:14 0.033600
15 *5:15 0.033600
16 *5:16 0.033600
17 *5:17 0.033600
18 *5:18 0.033600
19 *5:19 0.033600
20 *5:20 0.033600
21 *5:21 0.033600
22 *5:22 0.033600
23 *5:23 0.033600
24 *5:24 0.033600
25 *5:25 0.033600
26 *5:26 0.033600
27 *5:27 0.033600
28 *5:28 0.033600
29 *5:29 0.033600
30 *5:30 0.033600
31 *5:31 0.033600
32 *5:32 0.050000
*RES
1 *5:1 *5:2 5.000000
2 *5:2 *5:3 0.168000
3 *5:3 *5:4 0.140000
4 *5:4 *5:5 0.140000
5 *5:5 *5:6 0.140000
6 *5:6 *5:7 0.140000
7 *5:7 *5:8 0.140000
8 *5:8 *5:9 0.140000
9 *5:9 *5:10 0.140000
10 *5:10 *5:11 0.140000
11 *5:11 *5:12 0.140000
12 *5:12 *5:13 0.140000
13 *5:13 *5:14 0.140000
14 *5:14 *5:15 0.140000
15 *5:15 *5:16 0.140000
16 *5:16 *5:17 0.140000
17 *5:17 *5:18 0.140000
18 *5:18 *5:19 0.140000
19 *5:19 *5:20 0.140000
20 *5:20 *5:21 0.140000
21 *5:21 *5:22 0.140000
22 *5:22 *5:23 0.140000
23 *5:23 *5:24 0.140000
24 *5:24 *5:25 0.140000
25 *5:25 *5:26 0.140000
26 *5:26 *5:27 0.140000
27 *5:27 *5:28 0.140000
28 *5:28 *5:29 0.140000
29 *5:29 *5:30 0.140000
30 *5:30 *5:31 0.140000
31 *5:31 *5:32 0.140000
32 *5:32 *5:33 5.000000
*END

*D_NET *6 3.9168
*CONN
*O n_out:Y
*I b_out:A
*CAP
1 *6:1 0.047600
2 *6:2 0.023800
3 *6:3 0.023800
4 *6:4 0.023800
5 *6:5 0.023800
6 *6:6 0.050000
7 *6:7 0.019600
8 *6:8 0.019600
9 *6:9 0.019600
10 *6:10 0.019600
11 *6:11 0.019600
12 *6:12 0.019600
13 *6:13 0.019600
14 *6:14 0.019600
15 *6:15 0.019600
16 *6:16 0.019600
17 *6:17 0.019600
18 *6:18 0.019600
19 *6:19 0.019600
20 *6:20 0.019600
21 *6:21 0.019600
22 *6:22 0.019600
23 *6:23 0.019600
24 *6:24 0.019600
25 *6:25 0.019600
26 *6:26 0.019600
27 *6:27 0.019600
28 *6:28 0.019600
29 *6:29 0.019600
30 *6:30 0.019600
31 *6:31 0.019600
32 *6:32 0.019600
33 *6:33 0.019600
34 *6:34 0.019600
35 *6:35 0.019600
36 *6:36 0.019600
37 *6:37 0.019600
38 *6:38 0.019600
39 *6:39 0.019600
40 *6:40 0.019600
41 *6:41 0.019600
42 *6:42 0.019600
43 *6:43 0.019600
44 *6:44 0.019600
45 *6:45 0.019600
46 *6:46 0.019600
47 *6:47 0.019600
48 *6:48 0.019600
49 *6:49 0.019600
50 *6:50 0.019600
51 *6:51 0.019600
52 *6:52 0.019600
53 *6:53 0.019600
54 *6:54 0.019600
55 *6:55 0.019600
56 *6:56 0.019600
57 *6:57 0.019600
58 *6:58 0.019600
59 *6:59 0.019600
60 *6:60 0.019600
61 *6:61 0.019600
62 *6:62 0.019600
63 *6:63 0.019600
64 *6:64 0.019600
65 *6:65 0.019600
66 *6:66 0.019600
67 *6:67 0.019600
68 *6:68 0.019600
69 *6:69 0.019600
70 *6:70 0.019600
71 *6:71 0.019600
72 *6:72 0.019600
73 *6:73 0.019600
74 *6:74 0.019600
75 *6:75 0.019600
76 *6:76 0.019600
77 *6:77 0.019600
78 *6:78 0.019600
79 *6:79 0.019600
80 *6:80 0.019600
81 *6:81 0.019600
82 *6:82 0.019600
83 *6:83 0.019600
84 *6:84 0.019600
85 *6:85 0.019600
86 *6:86 0.019600
87 *6:87 0.019600
88 *6:88 0.019600
89 *6:89 0.019600
90 *6:90 0.019600
91 *6:91 0.019600
92 *6:92 0.019600
93 *6:93 0.019600
94 *6:94 0.019600
95 *6:95 0.019600
96 *6:96 0.019600
97 *6:97 0.019600
98 *6:98 0.019600
99 *6:99 0.019600
100 *6:100 0.019600
101 *6:101 0.019600
102 *6:102 0.019600
103 *6:103 0.019600
104 *6:104 0.019600
105 *6:105 0.019600
106 *6:106 0.019600
107 *6:107 0.019600
108 *6:108 0.019600
109 *6:109 0.019600
110 *6:110 0.019600
111 *6:111 0.019600
112 *6:112 0.019600
113 *6:113 0.019600
114 *6:114 0.019600
115 *6:115 0.019600
116 *6:116 0.019600
117 *6:117 0.019600
118 *6:118 0.019600
119 *6:119 0.019600
120 *6:120 0.019600
121 *6:121 0.019600
122 *6:122 0.019600
123 *6:123 0.019600
124 *6:124 0.019600
125 *6:125 0.019600
126 *6:126 0.019600
127 *6:127 0.019600
128 *6:128 0.019600
129 *6:129 0.019600
130 *6:130 0.019600
131 *6:131 0.019600
132 *6:132 0.019600
133 *6:133 0.019600
134 *6:134 0.019600
135 *6:135 0.019600
136 *6:136 0.019600
137 *6:137 0.019600
138 *6:138 0.019600
139 *6:139 0.019600
140 *6:140 0.019600
141 *6:141 0.019600
142 *6:142 0.019600
143 *6:143 0.019600
144 *6:144 0.019600
145 *6:145 0.019600
146 *6:146 0.019600
147 *6:147 0.019600
148 *6:148 0.019600
149 *6:149 0.019600
150 *6:150 0.019600
151 *6:151 0.019600
152 *6:152 0.019600
153 *6:153 0.019600
154 *6:154 0.019600
155 *6:155 0.019600
156 *6:156 0.019600
157 *6:157 0.019600
158 *6:158 0.019600
159 *6:159 0.019600
160 *6:160 0.019600
161 *6:161 0.019600
162 *6:162 0.019600
163 *6:163 0.019600
164 *6:164 0.019600
165 *6:165 0.019600
166 *6:166 0.019600
167 *6:167 0.019600
168 *6:168 0.019600
169 *6:169 0.019600
170 *6:170 0.019600
171 *6:171 0.019600
172 *6:172 0.019600
173 *6:173 0.019600
174 *6:174 0.019600
175 *6:175 0.019600
176 *6:176 0.019600
177 *6:177 0.019600
178 *6:178 0.019600
179 *6:179 0.019600
180 *6:180 0.019600
181 *6:181 0.019600
182 *6:182 0.019600
183 *6:183 0.019600
184 *6:184 0.019600
185 *6:185 0.019600
186 *6:186 0.019600
187 *6:187 0.019600
188 *6:188 0.019600
189 *6:189 0.019600
190 *6:190 0.019600
191 *6:191 0.019600
192 *6:192 0.019600
193 *6:193 0.019600
194 *6:194 0.019600
195 *6:195 0.019600
196 *6:196 0.019600
*RES
1 *6:1 *6:2 0.224000
2 *6:2 *6:3 0.112000
3 *6:3 *6:4 0.112000
4 *6:4 *6:5 0.112000
5 *6:5 *6:6 0.112000
6 *6:6 *6:7 5.000000
7 *6:7 *6:8 0.084000
8 *6:8 *6:9 0.084000
9 *6:9 *6:10 0.084000
10 *6:10 *6:11 0.084000
11 *6:11 *6:12 0.084000
12 *6:12 *6:13 0.084000
13 *6:13 *6:14 0.084000
14 *6:14 *6:15 0.084000
15 *6:15 *6:16 0.084000
16 *6:16 *6:17 0.084000
17 *6:17 *6:18 0.084000
18 *6:18 *6:19 0.084000
19 *6:19 *6:20 0.084000
20 *6:20 *6:21 0.084000
21 *6:21 *6:22 0.084000
22 *6:22 *6:23 0.084000
23 *6:23 *6:24 0.084000
24 *6:24 *6:25 0.084000
25 *6:25 *6:26 0.084000
26 *6:26 *6:27 0.084000
27 *6:27 *6:28 0.084000
28 *6:28 *6:29 0.084000
29 *6:29 *6:30 0.084000
30 *6:30 *6:31 0.084000
31 *6:31 *6:32 0.084000
32 *6:32 *6:33 0.084000
33 *6:33 *6:34 0.084000
34 *6:34 *6:35 0.084000
35 *6:35 *6:36 0.084000
36 *6:36 *6:37 0.084000
37 *6:37 *6:38 0.084000
38 *6:38 *6:39 0.084000
39 *6:39 *6:40 0.084000
40 *6:40 *6:41 0.084000
41 *6:41 *6:42 0.084000
42 *6:42 *6:43 0.084000
43 *6:43 *6:44 0.084000
44 *6:44 *6:45 0.084000
45 *6:45 *6:46 0.084000
46 *6:46 *6:47 0.084000
47 *6:47 *6:48 0.084000
48 *6:48 *6:49 0.084000
49 *6:49 *6:50 0.084000
50 *6:50 *6:51 0.084000
51 *6:51 *6:52 0.084000
52 *6:52 *6:53 0.084000
53 *6:53 *6:54 0.084000
54 *6:54 *6:55 0.084000
55 *6:55 *6:56 0.084000
56 *6:56 *6:57 0.084000
57 *6:57 *6:58 0.084000
58 *6:58 *6:59 0.084000
59 *6:59 *6:60 0.084000
60 *6:60 *6:61 0.084000
61 *6:61 *6:62 0.084000
62 *6:62 *6:63 0.084000
63 *6:63 *6:64 0.084000
64 *6:64 *6:65 0.084000
65 *6:65 *6:66 0.084000
66 *6:66 *6:67 0.084000
67 *6:67 *6:68 0.084000
68 *6:68 *6:69 0.084000
69 *6:69 *6:70 0.084000
70 *6:70 *6:71 0.084000
71 *6:71 *6:72 0.084000
72 *6:72 *6:73 0.084000
73 *6:73 *6:74 0.084000
74 *6:74 *6:75 0.084000
75 *6:75 *6:76 0.084000
76 *6:76 *6:77 0.084000
77 *6:77 *6:78 0.084000
78 *6:78 *6:79 0.084000
79 *6:79 *6:80 0.084000
80 *6:80 *6:81 0.084000
81 *6:81 *6:82 0.084000
82 *6:82 *6:83 0.084000
83 *6:83 *6:84 0.084000
84 *6:84 *6:85 0.084000
85 *6:85 *6:86 0.084000
86 *6:86 *6:87 0.084000
87 *6:87 *6:88 0.084000
88 *6:88 *6:89 0.084000
89 *6:89 *6:90 0.084000
90 *6:90 *6:91 0.084000
91 *6:91 *6:92 0.084000
92 *6:92 *6:93 0.084000
93 *6:93 *6:94 0.084000
94 *6:94 *6:95 0.084000
95 *6:95 *6:96 0.084000
96 *6:96 *6:97 0.084000
97 *6:97 *6:98 0.084000
98 *6:98 *6:99 0.084000
99 *6:99 *6:100 0.084000
100 *6:100 *6:101 0.084000
101 *6:101 *6:102 0.084000
102 *6:102 *6:103 0.084000
103 *6:103 *6:104 0.084000
104 *6:104 *6:105 0.084000
105 *6:105 *6:106 0.084000
106 *6:106 *6:107 0.084000
107 *6:107 *6:108 0.084000
108 *6:108 *6:109 0.084000
109 *6:109 *6:110 0.084000
110 *6:110 *6:111 0.084000
111 *6:111 *6:112 0.084000
112 *6:112 *6:113 0.084000
113 *6:113 *6:114 0.084000
114 *6:114 *6:115 0.084000
115 *6:115 *6:116 0.084000
116 *6:116 *6:117 0.084000
117 *6:117 *6:118 0.084000
118 *6:118 *6:119 0.084000
119 *6:119 *6:120 0.084000
120 *6:120 *6:121 0.084000
121 *6:121 *6:122 0.084000
122 *6:122 *6:123 0.084000
123 *6:123 *6:124 0.084000
124 *6:124 *6:125 0.084000
125 *6:125 *6:126 0.084000
126 *6:126 *6:127 0.084000
127 *6:127 *6:128 0.084000
128 *6:128 *6:129 0.084000
129 *6:129 *6:130 0.084000
130 *6:130 *6:131 0.084000
131 *6:131 *6:132 0.084000
132 *6:132 *6:133 0.084000
133 *6:133 *6:134 0.084000
134 *6:134 *6:135 0.084000
135 *6:135 *6:136 0.084000
136 *6:136 *6:137 0.084000
137 *6:137 *6:138 0.084000
138 *6:138 *6:139 0.084000
139 *6:139 *6:140 0.084000
140 *6:140 *6:141 0.084000
141 *6:141 *6:142 0.084000
142 *6:142 *6:143 0.084000
143 *6:143 *6:144 0.084000
144 *6:144 *6:145 0.084000
145 *6:145 *6:146 0.084000
146 *6:146 *6:147 0.084000
147 *6:147 *6:148 0.084000
148 *6:148 *6:149 0.084000
149 *6:149 *6:150 0.084000
150 *6:150 *6:151 0.084000
151 *6:151 *6:152 0.084000
152 *6:152 *6:153 0.084000
153 *6:153 *6:154 0.084000
154 *6:154 *6:155 0.084000
155 *6:155 *6:156 0.084000
156 *6:156 *6:157 0.084000
157 *6:157 *6:158 0.084000
158 *6:158 *6:159 0.084000
159 *6:159 *6:160 0.084000
160 *6:160 *6:161 0.084000
161 *6:161 *6:162 0.084000
162 *6:162 *6:163 0.084000
163 *6:163 *6:164 0.084000
164 *6:164 *6:165 0.084000
165 *6:165 *6:166 0.084000
166 *6:166 *6:167 0.084000
167 *6:167 *6:168 0.084000
168 *6:168 *6:169 0.084000
169 *6:169 *6:170 0.084000
170 *6:170 *6:171 0.084000
171 *6:171 *6:172 0.084000
172 *6:172 *6:173 0.084000
173 *6:173 *6:174 0.084000
174 *6:174 *6:175 0.084000
175 *6:175 *6:176 0.084000
176 *6:176 *6:177 0.084000
177 *6:177 *6:178 0.084000
178 *6:178 *6:179 0.084000
179 *6:179 *6:180 0.084000
180 *6:180 *6:181 0.084000
181 *6:181 *6:182 0.084000
182 *6:182 *6:183 0.084000
183 *6:183 *6:184 0.084000
184 *6:184 *6:185 0.084000
185 *6:185 *6:186 0.084000
186 *6:186 *6:187 0.084000
187 *6:187 *6:188 0.084000
188 *6:188 *6:189 0.084000
189 *6:189 *6:190 0.084000
190 *6:190 *6:191 0.084000
191 *6:191 *6:192 0.084000
192 *6:192 *6:193 0.084000
193 *6:193 *6:194 0.084000
194 *6:194 *6:195 0.084000
195 *6:195 *6:196 0.084000
196 *6:196 *6:197 0.084000
*END

