*SPEF "IEEE 1481-2009"
*DESIGN "soc_sram"
*DATE "Sun Mar 08 08:28:57 2026"
*VENDOR "Byteflow EDA"
*PROGRAM "Byteflow SpefEngine"
*VERSION "5.0"
*DESIGN_FLOW "NETLIST_TYPE_VERILOG"
*DIVIDER /
*DELIMITER :
*BUS_DELIMITER [ ]
*T_UNIT 1 PS
*C_UNIT 1 FF
*R_UNIT 1 OHM
*L_UNIT 1 HENRY

*NAME_MAP
*1 clk_buf
*2 dout_raw
*3 addr_buf
*4 en_buf
*5 din_buf
*6 dout_inv

*PORTS

*D_NET *1 2.6424
*CONN
*O b_clk:Y
*I mem:clk
*CAP
1 *1:1 0.039200
2 *1:2 0.039200
3 *1:3 0.039200
4 *1:4 0.039200
5 *1:5 0.039200
6 *1:6 0.039200
7 *1:7 0.039200
8 *1:8 0.039200
9 *1:9 0.039200
10 *1:10 0.039200
11 *1:11 0.039200
12 *1:12 0.039200
13 *1:13 0.039200
14 *1:14 0.039200
15 *1:15 0.039200
16 *1:16 0.039200
17 *1:17 0.039200
18 *1:18 0.039200
19 *1:19 0.039200
20 *1:20 0.039200
21 *1:21 0.039200
22 *1:22 0.039200
23 *1:23 0.050000
24 *1:24 0.033600
25 *1:25 0.033600
26 *1:26 0.033600
27 *1:27 0.033600
28 *1:28 0.033600
29 *1:29 0.033600
30 *1:30 0.033600
31 *1:31 0.033600
32 *1:32 0.033600
33 *1:33 0.033600
34 *1:34 0.033600
35 *1:35 0.033600
36 *1:36 0.033600
37 *1:37 0.033600
38 *1:38 0.033600
39 *1:39 0.033600
40 *1:40 0.033600
41 *1:41 0.033600
42 *1:42 0.033600
43 *1:43 0.033600
44 *1:44 0.033600
45 *1:45 0.033600
46 *1:46 0.033600
47 *1:47 0.033600
48 *1:48 0.033600
49 *1:49 0.033600
50 *1:50 0.033600
51 *1:51 0.033600
52 *1:52 0.033600
53 *1:53 0.033600
54 *1:54 0.033600
55 *1:55 0.033600
56 *1:56 0.033600
57 *1:57 0.033600
58 *1:58 0.033600
59 *1:59 0.033600
60 *1:60 0.033600
61 *1:61 0.033600
62 *1:62 0.033600
63 *1:63 0.033600
64 *1:64 0.033600
65 *1:65 0.033600
66 *1:66 0.033600
67 *1:67 0.033600
68 *1:68 0.033600
69 *1:69 0.033600
70 *1:70 0.033600
71 *1:71 0.033600
72 *1:72 0.033600
73 *1:73 0.033600
74 *1:74 0.050000
*RES
1 *1:1 *1:2 0.168000
2 *1:2 *1:3 0.168000
3 *1:3 *1:4 0.168000
4 *1:4 *1:5 0.168000
5 *1:5 *1:6 0.168000
6 *1:6 *1:7 0.168000
7 *1:7 *1:8 0.168000
8 *1:8 *1:9 0.168000
9 *1:9 *1:10 0.168000
10 *1:10 *1:11 0.168000
11 *1:11 *1:12 0.168000
12 *1:12 *1:13 0.168000
13 *1:13 *1:14 0.168000
14 *1:14 *1:15 0.168000
15 *1:15 *1:16 0.168000
16 *1:16 *1:17 0.168000
17 *1:17 *1:18 0.168000
18 *1:18 *1:19 0.168000
19 *1:19 *1:20 0.168000
20 *1:20 *1:21 0.168000
21 *1:21 *1:22 0.168000
22 *1:22 *1:23 0.168000
23 *1:23 *1:24 5.000000
24 *1:24 *1:25 0.140000
25 *1:25 *1:26 0.140000
26 *1:26 *1:27 0.140000
27 *1:27 *1:28 0.140000
28 *1:28 *1:29 0.140000
29 *1:29 *1:30 0.140000
30 *1:30 *1:31 0.140000
31 *1:31 *1:32 0.140000
32 *1:32 *1:33 0.140000
33 *1:33 *1:34 0.140000
34 *1:34 *1:35 0.140000
35 *1:35 *1:36 0.140000
36 *1:36 *1:37 0.140000
37 *1:37 *1:38 0.140000
38 *1:38 *1:39 0.140000
39 *1:39 *1:40 0.140000
40 *1:40 *1:41 0.140000
41 *1:41 *1:42 0.140000
42 *1:42 *1:43 0.140000
43 *1:43 *1:44 0.140000
44 *1:44 *1:45 0.140000
45 *1:45 *1:46 0.140000
46 *1:46 *1:47 0.140000
47 *1:47 *1:48 0.140000
48 *1:48 *1:49 0.140000
49 *1:49 *1:50 0.140000
50 *1:50 *1:51 0.140000
51 *1:51 *1:52 0.140000
52 *1:52 *1:53 0.140000
53 *1:53 *1:54 0.140000
54 *1:54 *1:55 0.140000
55 *1:55 *1:56 0.140000
56 *1:56 *1:57 0.140000
57 *1:57 *1:58 0.140000
58 *1:58 *1:59 0.140000
59 *1:59 *1:60 0.140000
60 *1:60 *1:61 0.140000
61 *1:61 *1:62 0.140000
62 *1:62 *1:63 0.140000
63 *1:63 *1:64 0.140000
64 *1:64 *1:65 0.140000
65 *1:65 *1:66 0.140000
66 *1:66 *1:67 0.140000
67 *1:67 *1:68 0.140000
68 *1:68 *1:69 0.140000
69 *1:69 *1:70 0.140000
70 *1:70 *1:71 0.140000
71 *1:71 *1:72 0.140000
72 *1:72 *1:73 0.140000
73 *1:73 *1:74 0.140000
74 *1:74 *1:75 5.000000
*END

*D_NET *2 3.2692
*CONN
*O mem:dout
*I n_out:A
*CAP
1 *2:1 0.050000
2 *2:2 0.033600
3 *2:3 0.033600
4 *2:4 0.033600
5 *2:5 0.033600
6 *2:6 0.033600
7 *2:7 0.033600
8 *2:8 0.033600
9 *2:9 0.033600
10 *2:10 0.033600
11 *2:11 0.033600
12 *2:12 0.033600
13 *2:13 0.033600
14 *2:14 0.033600
15 *2:15 0.033600
16 *2:16 0.033600
17 *2:17 0.033600
18 *2:18 0.033600
19 *2:19 0.033600
20 *2:20 0.033600
21 *2:21 0.033600
22 *2:22 0.033600
23 *2:23 0.033600
24 *2:24 0.033600
25 *2:25 0.033600
26 *2:26 0.033600
27 *2:27 0.033600
28 *2:28 0.033600
29 *2:29 0.033600
30 *2:30 0.033600
31 *2:31 0.033600
32 *2:32 0.033600
33 *2:33 0.033600
34 *2:34 0.033600
35 *2:35 0.033600
36 *2:36 0.033600
37 *2:37 0.033600
38 *2:38 0.033600
39 *2:39 0.033600
40 *2:40 0.033600
41 *2:41 0.033600
42 *2:42 0.033600
43 *2:43 0.033600
44 *2:44 0.033600
45 *2:45 0.033600
46 *2:46 0.033600
47 *2:47 0.050000
48 *2:48 0.039200
49 *2:49 0.039200
50 *2:50 0.039200
51 *2:51 0.039200
52 *2:52 0.039200
53 *2:53 0.039200
54 *2:54 0.039200
55 *2:55 0.039200
56 *2:56 0.039200
57 *2:57 0.039200
58 *2:58 0.039200
59 *2:59 0.039200
60 *2:60 0.039200
61 *2:61 0.039200
62 *2:62 0.039200
63 *2:63 0.039200
64 *2:64 0.039200
65 *2:65 0.039200
66 *2:66 0.039200
67 *2:67 0.039200
68 *2:68 0.039200
69 *2:69 0.039200
70 *2:70 0.039200
71 *2:71 0.039200
72 *2:72 0.039200
73 *2:73 0.039200
74 *2:74 0.039200
75 *2:75 0.039200
76 *2:76 0.039200
77 *2:77 0.039200
78 *2:78 0.039200
79 *2:79 0.039200
80 *2:80 0.039200
81 *2:81 0.039200
82 *2:82 0.039200
83 *2:83 0.039200
84 *2:84 0.039200
85 *2:85 0.039200
86 *2:86 0.039200
87 *2:87 0.039200
88 *2:88 0.039200
89 *2:89 0.050000
*RES
1 *2:1 *2:2 5.000000
2 *2:2 *2:3 0.140000
3 *2:3 *2:4 0.140000
4 *2:4 *2:5 0.140000
5 *2:5 *2:6 0.140000
6 *2:6 *2:7 0.140000
7 *2:7 *2:8 0.140000
8 *2:8 *2:9 0.140000
9 *2:9 *2:10 0.140000
10 *2:10 *2:11 0.140000
11 *2:11 *2:12 0.140000
12 *2:12 *2:13 0.140000
13 *2:13 *2:14 0.140000
14 *2:14 *2:15 0.140000
15 *2:15 *2:16 0.140000
16 *2:16 *2:17 0.140000
17 *2:17 *2:18 0.140000
18 *2:18 *2:19 0.140000
19 *2:19 *2:20 0.140000
20 *2:20 *2:21 0.140000
21 *2:21 *2:22 0.140000
22 *2:22 *2:23 0.140000
23 *2:23 *2:24 0.140000
24 *2:24 *2:25 0.140000
25 *2:25 *2:26 0.140000
26 *2:26 *2:27 0.140000
27 *2:27 *2:28 0.140000
28 *2:28 *2:29 0.140000
29 *2:29 *2:30 0.140000
30 *2:30 *2:31 0.140000
31 *2:31 *2:32 0.140000
32 *2:32 *2:33 0.140000
33 *2:33 *2:34 0.140000
34 *2:34 *2:35 0.140000
35 *2:35 *2:36 0.140000
36 *2:36 *2:37 0.140000
37 *2:37 *2:38 0.140000
38 *2:38 *2:39 0.140000
39 *2:39 *2:40 0.140000
40 *2:40 *2:41 0.140000
41 *2:41 *2:42 0.140000
42 *2:42 *2:43 0.140000
43 *2:43 *2:44 0.140000
44 *2:44 *2:45 0.140000
45 *2:45 *2:46 0.140000
46 *2:46 *2:47 0.140000
47 *2:47 *2:48 5.000000
48 *2:48 *2:49 0.168000
49 *2:49 *2:50 0.168000
50 *2:50 *2:51 0.168000
51 *2:51 *2:52 0.168000
52 *2:52 *2:53 0.168000
53 *2:53 *2:54 0.168000
54 *2:54 *2:55 0.168000
55 *2:55 *2:56 0.168000
56 *2:56 *2:57 0.168000
57 *2:57 *2:58 0.168000
58 *2:58 *2:59 0.168000
59 *2:59 *2:60 0.168000
60 *2:60 *2:61 0.168000
61 *2:61 *2:62 0.168000
62 *2:62 *2:63 0.168000
63 *2:63 *2:64 0.168000
64 *2:64 *2:65 0.168000
65 *2:65 *2:66 0.168000
66 *2:66 *2:67 0.168000
67 *2:67 *2:68 0.168000
68 *2:68 *2:69 0.168000
69 *2:69 *2:70 0.168000
70 *2:70 *2:71 0.168000
71 *2:71 *2:72 0.168000
72 *2:72 *2:73 0.168000
73 *2:73 *2:74 0.168000
74 *2:74 *2:75 0.168000
75 *2:75 *2:76 0.168000
76 *2:76 *2:77 0.168000
77 *2:77 *2:78 0.168000
78 *2:78 *2:79 0.168000
79 *2:79 *2:80 0.168000
80 *2:80 *2:81 0.168000
81 *2:81 *2:82 0.168000
82 *2:82 *2:83 0.168000
83 *2:83 *2:84 0.168000
84 *2:84 *2:85 0.168000
85 *2:85 *2:86 0.168000
86 *2:86 *2:87 0.168000
87 *2:87 *2:88 0.168000
88 *2:88 *2:89 0.168000
89 *2:89 *2:90 5.000000
*END

*D_NET *3 2.9216
*CONN
*O b_addr:Y
*I mem:addr
*CAP
1 *3:1 0.050000
2 *3:2 0.039200
3 *3:3 0.039200
4 *3:4 0.039200
5 *3:5 0.039200
6 *3:6 0.039200
7 *3:7 0.039200
8 *3:8 0.039200
9 *3:9 0.039200
10 *3:10 0.039200
11 *3:11 0.050000
12 *3:12 0.033600
13 *3:13 0.033600
14 *3:14 0.033600
15 *3:15 0.033600
16 *3:16 0.033600
17 *3:17 0.033600
18 *3:18 0.033600
19 *3:19 0.033600
20 *3:20 0.033600
21 *3:21 0.033600
22 *3:22 0.033600
23 *3:23 0.033600
24 *3:24 0.050000
25 *3:25 0.039200
26 *3:26 0.039200
27 *3:27 0.039200
28 *3:28 0.039200
29 *3:29 0.039200
30 *3:30 0.039200
31 *3:31 0.039200
32 *3:32 0.039200
33 *3:33 0.039200
34 *3:34 0.039200
35 *3:35 0.039200
36 *3:36 0.039200
37 *3:37 0.039200
38 *3:38 0.039200
39 *3:39 0.039200
40 *3:40 0.039200
41 *3:41 0.039200
42 *3:42 0.039200
43 *3:43 0.039200
44 *3:44 0.039200
45 *3:45 0.039200
46 *3:46 0.039200
47 *3:47 0.039200
48 *3:48 0.039200
49 *3:49 0.039200
50 *3:50 0.039200
51 *3:51 0.039200
52 *3:52 0.039200
53 *3:53 0.039200
54 *3:54 0.039200
55 *3:55 0.039200
56 *3:56 0.039200
57 *3:57 0.039200
58 *3:58 0.039200
59 *3:59 0.039200
60 *3:60 0.039200
61 *3:61 0.039200
62 *3:62 0.039200
63 *3:63 0.039200
64 *3:64 0.050000
65 *3:65 0.033600
66 *3:66 0.033600
67 *3:67 0.033600
68 *3:68 0.033600
69 *3:69 0.033600
70 *3:70 0.033600
71 *3:71 0.033600
72 *3:72 0.033600
73 *3:73 0.033600
74 *3:74 0.033600
75 *3:75 0.033600
76 *3:76 0.033600
77 *3:77 0.033600
*RES
1 *3:1 *3:2 5.000000
2 *3:2 *3:3 0.168000
3 *3:3 *3:4 0.168000
4 *3:4 *3:5 0.168000
5 *3:5 *3:6 0.168000
6 *3:6 *3:7 0.168000
7 *3:7 *3:8 0.168000
8 *3:8 *3:9 0.168000
9 *3:9 *3:10 0.168000
10 *3:10 *3:11 0.168000
11 *3:11 *3:12 5.000000
12 *3:12 *3:13 0.140000
13 *3:13 *3:14 0.140000
14 *3:14 *3:15 0.140000
15 *3:15 *3:16 0.140000
16 *3:16 *3:17 0.140000
17 *3:17 *3:18 0.140000
18 *3:18 *3:19 0.140000
19 *3:19 *3:20 0.140000
20 *3:20 *3:21 0.140000
21 *3:21 *3:22 0.140000
22 *3:22 *3:23 0.140000
23 *3:23 *3:24 0.140000
24 *3:24 *3:25 5.000000
25 *3:25 *3:26 0.168000
26 *3:26 *3:27 0.168000
27 *3:27 *3:28 0.168000
28 *3:28 *3:29 0.168000
29 *3:29 *3:30 0.168000
30 *3:30 *3:31 0.168000
31 *3:31 *3:32 0.168000
32 *3:32 *3:33 0.168000
33 *3:33 *3:34 0.168000
34 *3:34 *3:35 0.168000
35 *3:35 *3:36 0.168000
36 *3:36 *3:37 0.168000
37 *3:37 *3:38 0.168000
38 *3:38 *3:39 0.168000
39 *3:39 *3:40 0.168000
40 *3:40 *3:41 0.168000
41 *3:41 *3:42 0.168000
42 *3:42 *3:43 0.168000
43 *3:43 *3:44 0.168000
44 *3:44 *3:45 0.168000
45 *3:45 *3:46 0.168000
46 *3:46 *3:47 0.168000
47 *3:47 *3:48 0.168000
48 *3:48 *3:49 0.168000
49 *3:49 *3:50 0.168000
50 *3:50 *3:51 0.168000
51 *3:51 *3:52 0.168000
52 *3:52 *3:53 0.168000
53 *3:53 *3:54 0.168000
54 *3:54 *3:55 0.168000
55 *3:55 *3:56 0.168000
56 *3:56 *3:57 0.168000
57 *3:57 *3:58 0.168000
58 *3:58 *3:59 0.168000
59 *3:59 *3:60 0.168000
60 *3:60 *3:61 0.168000
61 *3:61 *3:62 0.168000
62 *3:62 *3:63 0.168000
63 *3:63 *3:64 0.168000
64 *3:64 *3:65 5.000000
65 *3:65 *3:66 0.140000
66 *3:66 *3:67 0.140000
67 *3:67 *3:68 0.140000
68 *3:68 *3:69 0.140000
69 *3:69 *3:70 0.140000
70 *3:70 *3:71 0.140000
71 *3:71 *3:72 0.140000
72 *3:72 *3:73 0.140000
73 *3:73 *3:74 0.140000
74 *3:74 *3:75 0.140000
75 *3:75 *3:76 0.140000
76 *3:76 *3:77 0.140000
77 *3:77 *3:78 0.140000
*END

*D_NET *4 1.8588
*CONN
*O b_en:Y
*I mem:en
*CAP
1 *4:1 0.039200
2 *4:2 0.039200
3 *4:3 0.039200
4 *4:4 0.039200
5 *4:5 0.039200
6 *4:6 0.039200
7 *4:7 0.039200
8 *4:8 0.039200
9 *4:9 0.039200
10 *4:10 0.039200
11 *4:11 0.039200
12 *4:12 0.039200
13 *4:13 0.039200
14 *4:14 0.039200
15 *4:15 0.039200
16 *4:16 0.039200
17 *4:17 0.039200
18 *4:18 0.039200
19 *4:19 0.039200
20 *4:20 0.039200
21 *4:21 0.039200
22 *4:22 0.039200
23 *4:23 0.039200
24 *4:24 0.033600
25 *4:25 0.033600
26 *4:26 0.033600
27 *4:27 0.033600
28 *4:28 0.033600
29 *4:29 0.033600
30 *4:30 0.033600
31 *4:31 0.033600
32 *4:32 0.033600
33 *4:33 0.033600
34 *4:34 0.033600
35 *4:35 0.033600
36 *4:36 0.033600
37 *4:37 0.033600
38 *4:38 0.033600
39 *4:39 0.033600
40 *4:40 0.033600
41 *4:41 0.033600
42 *4:42 0.033600
43 *4:43 0.033600
44 *4:44 0.033600
45 *4:45 0.033600
46 *4:46 0.033600
47 *4:47 0.033600
48 *4:48 0.033600
49 *4:49 0.033600
50 *4:50 0.033600
51 *4:51 0.050000
*RES
1 *4:1 *4:2 0.168000
2 *4:2 *4:3 0.168000
3 *4:3 *4:4 0.168000
4 *4:4 *4:5 0.168000
5 *4:5 *4:6 0.168000
6 *4:6 *4:7 0.168000
7 *4:7 *4:8 0.168000
8 *4:8 *4:9 0.168000
9 *4:9 *4:10 0.168000
10 *4:10 *4:11 0.168000
11 *4:11 *4:12 0.168000
12 *4:12 *4:13 0.168000
13 *4:13 *4:14 0.168000
14 *4:14 *4:15 0.168000
15 *4:15 *4:16 0.168000
16 *4:16 *4:17 0.168000
17 *4:17 *4:18 0.168000
18 *4:18 *4:19 0.168000
19 *4:19 *4:20 0.168000
20 *4:20 *4:21 0.168000
21 *4:21 *4:22 0.168000
22 *4:22 *4:23 0.168000
23 *4:23 *4:24 0.168000
24 *4:24 *4:25 0.140000
25 *4:25 *4:26 0.140000
26 *4:26 *4:27 0.140000
27 *4:27 *4:28 0.140000
28 *4:28 *4:29 0.140000
29 *4:29 *4:30 0.140000
30 *4:30 *4:31 0.140000
31 *4:31 *4:32 0.140000
32 *4:32 *4:33 0.140000
33 *4:33 *4:34 0.140000
34 *4:34 *4:35 0.140000
35 *4:35 *4:36 0.140000
36 *4:36 *4:37 0.140000
37 *4:37 *4:38 0.140000
38 *4:38 *4:39 0.140000
39 *4:39 *4:40 0.140000
40 *4:40 *4:41 0.140000
41 *4:41 *4:42 0.140000
42 *4:42 *4:43 0.140000
43 *4:43 *4:44 0.140000
44 *4:44 *4:45 0.140000
45 *4:45 *4:46 0.140000
46 *4:46 *4:47 0.140000
47 *4:47 *4:48 0.140000
48 *4:48 *4:49 0.140000
49 *4:49 *4:50 0.140000
50 *4:50 *4:51 0.140000
51 *4:51 *4:52 5.000000
*END

*D_NET *5 1.0072
*CONN
*O b_din:Y
*I mem:din
*CAP
1 *5:1 0.050000
2 *5:2 0.050000
3 *5:3 0.039200
4 *5:4 0.039200
5 *5:5 0.039200
6 *5:6 0.039200
7 *5:7 0.039200
8 *5:8 0.039200
9 *5:9 0.039200
10 *5:10 0.039200
11 *5:11 0.039200
12 *5:12 0.039200
13 *5:13 0.039200
14 *5:14 0.039200
15 *5:15 0.033600
16 *5:16 0.033600
17 *5:17 0.033600
18 *5:18 0.033600
19 *5:19 0.033600
20 *5:20 0.033600
21 *5:21 0.033600
22 *5:22 0.033600
23 *5:23 0.033600
24 *5:24 0.033600
25 *5:25 0.033600
26 *5:26 0.033600
27 *5:27 0.033600
*RES
1 *5:1 *5:2 5.000000
2 *5:2 *5:3 5.000000
3 *5:3 *5:4 0.168000
4 *5:4 *5:5 0.168000
5 *5:5 *5:6 0.168000
6 *5:6 *5:7 0.168000
7 *5:7 *5:8 0.168000
8 *5:8 *5:9 0.168000
9 *5:9 *5:10 0.168000
10 *5:10 *5:11 0.168000
11 *5:11 *5:12 0.168000
12 *5:12 *5:13 0.168000
13 *5:13 *5:14 0.168000
14 *5:14 *5:15 0.168000
15 *5:15 *5:16 0.140000
16 *5:16 *5:17 0.140000
17 *5:17 *5:18 0.140000
18 *5:18 *5:19 0.140000
19 *5:19 *5:20 0.140000
20 *5:20 *5:21 0.140000
21 *5:21 *5:22 0.140000
22 *5:22 *5:23 0.140000
23 *5:23 *5:24 0.140000
24 *5:24 *5:25 0.140000
25 *5:25 *5:26 0.140000
26 *5:26 *5:27 0.140000
27 *5:27 *5:28 0.140000
*END

*D_NET *6 1.1468
*CONN
*O n_out:Y
*I b_out:A
*CAP
1 *6:1 0.050000
2 *6:2 0.039200
3 *6:3 0.039200
4 *6:4 0.050000
5 *6:5 0.033600
6 *6:6 0.033600
7 *6:7 0.033600
8 *6:8 0.033600
9 *6:9 0.033600
10 *6:10 0.033600
11 *6:11 0.033600
12 *6:12 0.033600
13 *6:13 0.033600
14 *6:14 0.033600
15 *6:15 0.033600
16 *6:16 0.033600
17 *6:17 0.033600
18 *6:18 0.033600
19 *6:19 0.033600
20 *6:20 0.033600
21 *6:21 0.033600
22 *6:22 0.033600
23 *6:23 0.033600
24 *6:24 0.033600
25 *6:25 0.033600
26 *6:26 0.033600
27 *6:27 0.033600
28 *6:28 0.033600
29 *6:29 0.033600
30 *6:30 0.039200
31 *6:31 0.039200
32 *6:32 0.050000
*RES
1 *6:1 *6:2 5.000000
2 *6:2 *6:3 0.168000
3 *6:3 *6:4 0.168000
4 *6:4 *6:5 5.000000
5 *6:5 *6:6 0.140000
6 *6:6 *6:7 0.140000
7 *6:7 *6:8 0.140000
8 *6:8 *6:9 0.140000
9 *6:9 *6:10 0.140000
10 *6:10 *6:11 0.140000
11 *6:11 *6:12 0.140000
12 *6:12 *6:13 0.140000
13 *6:13 *6:14 0.140000
14 *6:14 *6:15 0.140000
15 *6:15 *6:16 0.140000
16 *6:16 *6:17 0.140000
17 *6:17 *6:18 0.140000
18 *6:18 *6:19 0.140000
19 *6:19 *6:20 0.140000
20 *6:20 *6:21 0.140000
21 *6:21 *6:22 0.140000
22 *6:22 *6:23 0.140000
23 *6:23 *6:24 0.140000
24 *6:24 *6:25 0.140000
25 *6:25 *6:26 0.140000
26 *6:26 *6:27 0.140000
27 *6:27 *6:28 0.140000
28 *6:28 *6:29 0.140000
29 *6:29 *6:30 0.140000
30 *6:30 *6:31 0.168000
31 *6:31 *6:32 0.168000
32 *6:32 *6:33 5.000000
*END

