*SPEF "IEEE 1481-2009"
*DESIGN "soc_sram"
*DATE "Sat Mar 07 20:50:08 2026"
*VENDOR "Byteflow EDA"
*PROGRAM "Byteflow SpefEngine"
*VERSION "5.0"
*DESIGN_FLOW "NETLIST_TYPE_VERILOG"
*DIVIDER /
*DELIMITER :
*BUS_DELIMITER [ ]
*T_UNIT 1 PS
*C_UNIT 1 FF
*R_UNIT 1 OHM
*L_UNIT 1 HENRY

*NAME_MAP
*1 clk_buf
*2 dout_raw
*3 addr_buf
*4 en_buf
*5 din_buf
*6 dout_inv

*PORTS

*D_NET *1 1.4552
*CONN
*O b_clk:Y
*I mem:clk
*CAP
1 *1:1 0.050000
2 *1:2 0.050000
3 *1:3 0.039200
4 *1:4 0.039200
5 *1:5 0.033600
6 *1:6 0.033600
7 *1:7 0.033600
8 *1:8 0.033600
9 *1:9 0.033600
10 *1:10 0.033600
11 *1:11 0.033600
12 *1:12 0.033600
13 *1:13 0.033600
14 *1:14 0.033600
15 *1:15 0.033600
16 *1:16 0.033600
17 *1:17 0.033600
18 *1:18 0.033600
19 *1:19 0.033600
20 *1:20 0.033600
21 *1:21 0.033600
22 *1:22 0.033600
23 *1:23 0.033600
24 *1:24 0.033600
25 *1:25 0.033600
26 *1:26 0.033600
27 *1:27 0.033600
28 *1:28 0.033600
29 *1:29 0.033600
30 *1:30 0.033600
31 *1:31 0.033600
32 *1:32 0.033600
33 *1:33 0.033600
34 *1:34 0.033600
35 *1:35 0.033600
36 *1:36 0.033600
37 *1:37 0.033600
38 *1:38 0.033600
39 *1:39 0.033600
40 *1:40 0.033600
41 *1:41 0.033600
42 *1:42 0.033600
*RES
1 *1:1 *1:2 5.000000
2 *1:2 *1:3 5.000000
3 *1:3 *1:4 0.168000
4 *1:4 *1:5 0.168000
5 *1:5 *1:6 0.140000
6 *1:6 *1:7 0.140000
7 *1:7 *1:8 0.140000
8 *1:8 *1:9 0.140000
9 *1:9 *1:10 0.140000
10 *1:10 *1:11 0.140000
11 *1:11 *1:12 0.140000
12 *1:12 *1:13 0.140000
13 *1:13 *1:14 0.140000
14 *1:14 *1:15 0.140000
15 *1:15 *1:16 0.140000
16 *1:16 *1:17 0.140000
17 *1:17 *1:18 0.140000
18 *1:18 *1:19 0.140000
19 *1:19 *1:20 0.140000
20 *1:20 *1:21 0.140000
21 *1:21 *1:22 0.140000
22 *1:22 *1:23 0.140000
23 *1:23 *1:24 0.140000
24 *1:24 *1:25 0.140000
25 *1:25 *1:26 0.140000
26 *1:26 *1:27 0.140000
27 *1:27 *1:28 0.140000
28 *1:28 *1:29 0.140000
29 *1:29 *1:30 0.140000
30 *1:30 *1:31 0.140000
31 *1:31 *1:32 0.140000
32 *1:32 *1:33 0.140000
33 *1:33 *1:34 0.140000
34 *1:34 *1:35 0.140000
35 *1:35 *1:36 0.140000
36 *1:36 *1:37 0.140000
37 *1:37 *1:38 0.140000
38 *1:38 *1:39 0.140000
39 *1:39 *1:40 0.140000
40 *1:40 *1:41 0.140000
41 *1:41 *1:42 0.140000
42 *1:42 *1:43 0.140000
*END

*D_NET *2 2.3904
*CONN
*O mem:dout
*I n_out:A
*CAP
1 *2:1 0.050000
2 *2:2 0.033600
3 *2:3 0.033600
4 *2:4 0.033600
5 *2:5 0.033600
6 *2:6 0.033600
7 *2:7 0.033600
8 *2:8 0.033600
9 *2:9 0.033600
10 *2:10 0.033600
11 *2:11 0.033600
12 *2:12 0.033600
13 *2:13 0.033600
14 *2:14 0.033600
15 *2:15 0.033600
16 *2:16 0.033600
17 *2:17 0.033600
18 *2:18 0.033600
19 *2:19 0.033600
20 *2:20 0.033600
21 *2:21 0.033600
22 *2:22 0.033600
23 *2:23 0.033600
24 *2:24 0.033600
25 *2:25 0.033600
26 *2:26 0.033600
27 *2:27 0.033600
28 *2:28 0.033600
29 *2:29 0.033600
30 *2:30 0.033600
31 *2:31 0.033600
32 *2:32 0.033600
33 *2:33 0.033600
34 *2:34 0.033600
35 *2:35 0.033600
36 *2:36 0.033600
37 *2:37 0.033600
38 *2:38 0.033600
39 *2:39 0.033600
40 *2:40 0.033600
41 *2:41 0.033600
42 *2:42 0.033600
43 *2:43 0.033600
44 *2:44 0.033600
45 *2:45 0.033600
46 *2:46 0.033600
47 *2:47 0.033600
48 *2:48 0.050000
49 *2:49 0.039200
50 *2:50 0.039200
51 *2:51 0.039200
52 *2:52 0.039200
53 *2:53 0.039200
54 *2:54 0.039200
55 *2:55 0.039200
56 *2:56 0.039200
57 *2:57 0.039200
58 *2:58 0.039200
59 *2:59 0.039200
60 *2:60 0.039200
61 *2:61 0.039200
62 *2:62 0.039200
63 *2:63 0.039200
64 *2:64 0.039200
65 *2:65 0.039200
66 *2:66 0.039200
67 *2:67 0.039200
*RES
1 *2:1 *2:2 5.000000
2 *2:2 *2:3 0.140000
3 *2:3 *2:4 0.140000
4 *2:4 *2:5 0.140000
5 *2:5 *2:6 0.140000
6 *2:6 *2:7 0.140000
7 *2:7 *2:8 0.140000
8 *2:8 *2:9 0.140000
9 *2:9 *2:10 0.140000
10 *2:10 *2:11 0.140000
11 *2:11 *2:12 0.140000
12 *2:12 *2:13 0.140000
13 *2:13 *2:14 0.140000
14 *2:14 *2:15 0.140000
15 *2:15 *2:16 0.140000
16 *2:16 *2:17 0.140000
17 *2:17 *2:18 0.140000
18 *2:18 *2:19 0.140000
19 *2:19 *2:20 0.140000
20 *2:20 *2:21 0.140000
21 *2:21 *2:22 0.140000
22 *2:22 *2:23 0.140000
23 *2:23 *2:24 0.140000
24 *2:24 *2:25 0.140000
25 *2:25 *2:26 0.140000
26 *2:26 *2:27 0.140000
27 *2:27 *2:28 0.140000
28 *2:28 *2:29 0.140000
29 *2:29 *2:30 0.140000
30 *2:30 *2:31 0.140000
31 *2:31 *2:32 0.140000
32 *2:32 *2:33 0.140000
33 *2:33 *2:34 0.140000
34 *2:34 *2:35 0.140000
35 *2:35 *2:36 0.140000
36 *2:36 *2:37 0.140000
37 *2:37 *2:38 0.140000
38 *2:38 *2:39 0.140000
39 *2:39 *2:40 0.140000
40 *2:40 *2:41 0.140000
41 *2:41 *2:42 0.140000
42 *2:42 *2:43 0.140000
43 *2:43 *2:44 0.140000
44 *2:44 *2:45 0.140000
45 *2:45 *2:46 0.140000
46 *2:46 *2:47 0.140000
47 *2:47 *2:48 0.140000
48 *2:48 *2:49 5.000000
49 *2:49 *2:50 0.168000
50 *2:50 *2:51 0.168000
51 *2:51 *2:52 0.168000
52 *2:52 *2:53 0.168000
53 *2:53 *2:54 0.168000
54 *2:54 *2:55 0.168000
55 *2:55 *2:56 0.168000
56 *2:56 *2:57 0.168000
57 *2:57 *2:58 0.168000
58 *2:58 *2:59 0.168000
59 *2:59 *2:60 0.168000
60 *2:60 *2:61 0.168000
61 *2:61 *2:62 0.168000
62 *2:62 *2:63 0.168000
63 *2:63 *2:64 0.168000
64 *2:64 *2:65 0.168000
65 *2:65 *2:66 0.168000
66 *2:66 *2:67 0.168000
67 *2:67 *2:68 0.168000
*END

*D_NET *3 1.5604
*CONN
*O b_addr:Y
*I mem:addr
*CAP
1 *3:1 0.050000
2 *3:2 0.033600
3 *3:3 0.039200
4 *3:4 0.039200
5 *3:5 0.039200
6 *3:6 0.039200
7 *3:7 0.039200
8 *3:8 0.039200
9 *3:9 0.039200
10 *3:10 0.039200
11 *3:11 0.039200
12 *3:12 0.039200
13 *3:13 0.039200
14 *3:14 0.050000
15 *3:15 0.033600
16 *3:16 0.033600
17 *3:17 0.033600
18 *3:18 0.033600
19 *3:19 0.033600
20 *3:20 0.033600
21 *3:21 0.033600
22 *3:22 0.033600
23 *3:23 0.033600
24 *3:24 0.033600
25 *3:25 0.033600
26 *3:26 0.033600
27 *3:27 0.033600
28 *3:28 0.033600
29 *3:29 0.033600
30 *3:30 0.033600
31 *3:31 0.033600
32 *3:32 0.033600
33 *3:33 0.033600
34 *3:34 0.033600
35 *3:35 0.033600
36 *3:36 0.033600
37 *3:37 0.033600
38 *3:38 0.033600
39 *3:39 0.050000
40 *3:40 0.039200
41 *3:41 0.050000
42 *3:42 0.050000
*RES
1 *3:1 *3:2 5.000000
2 *3:2 *3:3 0.140000
3 *3:3 *3:4 0.168000
4 *3:4 *3:5 0.168000
5 *3:5 *3:6 0.168000
6 *3:6 *3:7 0.168000
7 *3:7 *3:8 0.168000
8 *3:8 *3:9 0.168000
9 *3:9 *3:10 0.168000
10 *3:10 *3:11 0.168000
11 *3:11 *3:12 0.168000
12 *3:12 *3:13 0.168000
13 *3:13 *3:14 0.168000
14 *3:14 *3:15 5.000000
15 *3:15 *3:16 0.140000
16 *3:16 *3:17 0.140000
17 *3:17 *3:18 0.140000
18 *3:18 *3:19 0.140000
19 *3:19 *3:20 0.140000
20 *3:20 *3:21 0.140000
21 *3:21 *3:22 0.140000
22 *3:22 *3:23 0.140000
23 *3:23 *3:24 0.140000
24 *3:24 *3:25 0.140000
25 *3:25 *3:26 0.140000
26 *3:26 *3:27 0.140000
27 *3:27 *3:28 0.140000
28 *3:28 *3:29 0.140000
29 *3:29 *3:30 0.140000
30 *3:30 *3:31 0.140000
31 *3:31 *3:32 0.140000
32 *3:32 *3:33 0.140000
33 *3:33 *3:34 0.140000
34 *3:34 *3:35 0.140000
35 *3:35 *3:36 0.140000
36 *3:36 *3:37 0.140000
37 *3:37 *3:38 0.140000
38 *3:38 *3:39 0.140000
39 *3:39 *3:40 5.000000
40 *3:40 *3:41 0.168000
41 *3:41 *3:42 5.000000
42 *3:42 *3:43 5.000000
*END

*D_NET *4 2.2732
*CONN
*O b_en:Y
*I mem:en
*CAP
1 *4:1 0.039200
2 *4:2 0.039200
3 *4:3 0.050000
4 *4:4 0.033600
5 *4:5 0.033600
6 *4:6 0.033600
7 *4:7 0.033600
8 *4:8 0.033600
9 *4:9 0.033600
10 *4:10 0.033600
11 *4:11 0.033600
12 *4:12 0.033600
13 *4:13 0.033600
14 *4:14 0.033600
15 *4:15 0.033600
16 *4:16 0.033600
17 *4:17 0.033600
18 *4:18 0.033600
19 *4:19 0.039200
20 *4:20 0.039200
21 *4:21 0.039200
22 *4:22 0.039200
23 *4:23 0.039200
24 *4:24 0.039200
25 *4:25 0.039200
26 *4:26 0.039200
27 *4:27 0.039200
28 *4:28 0.039200
29 *4:29 0.039200
30 *4:30 0.039200
31 *4:31 0.039200
32 *4:32 0.039200
33 *4:33 0.039200
34 *4:34 0.039200
35 *4:35 0.039200
36 *4:36 0.039200
37 *4:37 0.039200
38 *4:38 0.039200
39 *4:39 0.039200
40 *4:40 0.039200
41 *4:41 0.039200
42 *4:42 0.039200
43 *4:43 0.039200
44 *4:44 0.039200
45 *4:45 0.039200
46 *4:46 0.039200
47 *4:47 0.039200
48 *4:48 0.039200
49 *4:49 0.039200
50 *4:50 0.039200
51 *4:51 0.039200
52 *4:52 0.039200
53 *4:53 0.039200
54 *4:54 0.039200
55 *4:55 0.039200
56 *4:56 0.039200
57 *4:57 0.039200
58 *4:58 0.039200
59 *4:59 0.039200
60 *4:60 0.033600
*RES
1 *4:1 *4:2 0.168000
2 *4:2 *4:3 0.168000
3 *4:3 *4:4 5.000000
4 *4:4 *4:5 0.140000
5 *4:5 *4:6 0.140000
6 *4:6 *4:7 0.140000
7 *4:7 *4:8 0.140000
8 *4:8 *4:9 0.140000
9 *4:9 *4:10 0.140000
10 *4:10 *4:11 0.140000
11 *4:11 *4:12 0.140000
12 *4:12 *4:13 0.140000
13 *4:13 *4:14 0.140000
14 *4:14 *4:15 0.140000
15 *4:15 *4:16 0.140000
16 *4:16 *4:17 0.140000
17 *4:17 *4:18 0.140000
18 *4:18 *4:19 0.140000
19 *4:19 *4:20 0.168000
20 *4:20 *4:21 0.168000
21 *4:21 *4:22 0.168000
22 *4:22 *4:23 0.168000
23 *4:23 *4:24 0.168000
24 *4:24 *4:25 0.168000
25 *4:25 *4:26 0.168000
26 *4:26 *4:27 0.168000
27 *4:27 *4:28 0.168000
28 *4:28 *4:29 0.168000
29 *4:29 *4:30 0.168000
30 *4:30 *4:31 0.168000
31 *4:31 *4:32 0.168000
32 *4:32 *4:33 0.168000
33 *4:33 *4:34 0.168000
34 *4:34 *4:35 0.168000
35 *4:35 *4:36 0.168000
36 *4:36 *4:37 0.168000
37 *4:37 *4:38 0.168000
38 *4:38 *4:39 0.168000
39 *4:39 *4:40 0.168000
40 *4:40 *4:41 0.168000
41 *4:41 *4:42 0.168000
42 *4:42 *4:43 0.168000
43 *4:43 *4:44 0.168000
44 *4:44 *4:45 0.168000
45 *4:45 *4:46 0.168000
46 *4:46 *4:47 0.168000
47 *4:47 *4:48 0.168000
48 *4:48 *4:49 0.168000
49 *4:49 *4:50 0.168000
50 *4:50 *4:51 0.168000
51 *4:51 *4:52 0.168000
52 *4:52 *4:53 0.168000
53 *4:53 *4:54 0.168000
54 *4:54 *4:55 0.168000
55 *4:55 *4:56 0.168000
56 *4:56 *4:57 0.168000
57 *4:57 *4:58 0.168000
58 *4:58 *4:59 0.168000
59 *4:59 *4:60 0.168000
60 *4:60 *4:61 0.140000
*END

*D_NET *5 4.4908
*CONN
*O b_din:Y
*I mem:din
*CAP
1 *5:1 0.039200
2 *5:2 0.039200
3 *5:3 0.039200
4 *5:4 0.039200
5 *5:5 0.039200
6 *5:6 0.039200
7 *5:7 0.039200
8 *5:8 0.039200
9 *5:9 0.039200
10 *5:10 0.039200
11 *5:11 0.039200
12 *5:12 0.039200
13 *5:13 0.039200
14 *5:14 0.039200
15 *5:15 0.039200
16 *5:16 0.039200
17 *5:17 0.039200
18 *5:18 0.039200
19 *5:19 0.039200
20 *5:20 0.039200
21 *5:21 0.039200
22 *5:22 0.039200
23 *5:23 0.039200
24 *5:24 0.039200
25 *5:25 0.039200
26 *5:26 0.039200
27 *5:27 0.039200
28 *5:28 0.039200
29 *5:29 0.039200
30 *5:30 0.039200
31 *5:31 0.039200
32 *5:32 0.039200
33 *5:33 0.039200
34 *5:34 0.039200
35 *5:35 0.039200
36 *5:36 0.039200
37 *5:37 0.039200
38 *5:38 0.039200
39 *5:39 0.039200
40 *5:40 0.039200
41 *5:41 0.039200
42 *5:42 0.039200
43 *5:43 0.039200
44 *5:44 0.039200
45 *5:45 0.039200
46 *5:46 0.039200
47 *5:47 0.039200
48 *5:48 0.039200
49 *5:49 0.039200
50 *5:50 0.039200
51 *5:51 0.039200
52 *5:52 0.039200
53 *5:53 0.039200
54 *5:54 0.039200
55 *5:55 0.039200
56 *5:56 0.039200
57 *5:57 0.039200
58 *5:58 0.039200
59 *5:59 0.039200
60 *5:60 0.039200
61 *5:61 0.039200
62 *5:62 0.033600
63 *5:63 0.033600
64 *5:64 0.033600
65 *5:65 0.033600
66 *5:66 0.033600
67 *5:67 0.033600
68 *5:68 0.033600
69 *5:69 0.033600
70 *5:70 0.033600
71 *5:71 0.033600
72 *5:72 0.033600
73 *5:73 0.033600
74 *5:74 0.033600
75 *5:75 0.033600
76 *5:76 0.033600
77 *5:77 0.033600
78 *5:78 0.033600
79 *5:79 0.033600
80 *5:80 0.033600
81 *5:81 0.033600
82 *5:82 0.033600
83 *5:83 0.033600
84 *5:84 0.033600
85 *5:85 0.033600
86 *5:86 0.033600
87 *5:87 0.033600
88 *5:88 0.033600
89 *5:89 0.033600
90 *5:90 0.033600
91 *5:91 0.033600
92 *5:92 0.033600
93 *5:93 0.033600
94 *5:94 0.033600
95 *5:95 0.033600
96 *5:96 0.033600
97 *5:97 0.033600
98 *5:98 0.033600
99 *5:99 0.033600
100 *5:100 0.033600
101 *5:101 0.033600
102 *5:102 0.033600
103 *5:103 0.033600
104 *5:104 0.033600
105 *5:105 0.033600
106 *5:106 0.033600
107 *5:107 0.033600
108 *5:108 0.033600
109 *5:109 0.033600
110 *5:110 0.033600
111 *5:111 0.033600
112 *5:112 0.033600
113 *5:113 0.033600
114 *5:114 0.033600
115 *5:115 0.033600
116 *5:116 0.033600
117 *5:117 0.033600
118 *5:118 0.033600
119 *5:119 0.033600
120 *5:120 0.033600
121 *5:121 0.033600
122 *5:122 0.033600
123 *5:123 0.050000
*RES
1 *5:1 *5:2 0.168000
2 *5:2 *5:3 0.168000
3 *5:3 *5:4 0.168000
4 *5:4 *5:5 0.168000
5 *5:5 *5:6 0.168000
6 *5:6 *5:7 0.168000
7 *5:7 *5:8 0.168000
8 *5:8 *5:9 0.168000
9 *5:9 *5:10 0.168000
10 *5:10 *5:11 0.168000
11 *5:11 *5:12 0.168000
12 *5:12 *5:13 0.168000
13 *5:13 *5:14 0.168000
14 *5:14 *5:15 0.168000
15 *5:15 *5:16 0.168000
16 *5:16 *5:17 0.168000
17 *5:17 *5:18 0.168000
18 *5:18 *5:19 0.168000
19 *5:19 *5:20 0.168000
20 *5:20 *5:21 0.168000
21 *5:21 *5:22 0.168000
22 *5:22 *5:23 0.168000
23 *5:23 *5:24 0.168000
24 *5:24 *5:25 0.168000
25 *5:25 *5:26 0.168000
26 *5:26 *5:27 0.168000
27 *5:27 *5:28 0.168000
28 *5:28 *5:29 0.168000
29 *5:29 *5:30 0.168000
30 *5:30 *5:31 0.168000
31 *5:31 *5:32 0.168000
32 *5:32 *5:33 0.168000
33 *5:33 *5:34 0.168000
34 *5:34 *5:35 0.168000
35 *5:35 *5:36 0.168000
36 *5:36 *5:37 0.168000
37 *5:37 *5:38 0.168000
38 *5:38 *5:39 0.168000
39 *5:39 *5:40 0.168000
40 *5:40 *5:41 0.168000
41 *5:41 *5:42 0.168000
42 *5:42 *5:43 0.168000
43 *5:43 *5:44 0.168000
44 *5:44 *5:45 0.168000
45 *5:45 *5:46 0.168000
46 *5:46 *5:47 0.168000
47 *5:47 *5:48 0.168000
48 *5:48 *5:49 0.168000
49 *5:49 *5:50 0.168000
50 *5:50 *5:51 0.168000
51 *5:51 *5:52 0.168000
52 *5:52 *5:53 0.168000
53 *5:53 *5:54 0.168000
54 *5:54 *5:55 0.168000
55 *5:55 *5:56 0.168000
56 *5:56 *5:57 0.168000
57 *5:57 *5:58 0.168000
58 *5:58 *5:59 0.168000
59 *5:59 *5:60 0.168000
60 *5:60 *5:61 0.168000
61 *5:61 *5:62 0.168000
62 *5:62 *5:63 0.140000
63 *5:63 *5:64 0.140000
64 *5:64 *5:65 0.140000
65 *5:65 *5:66 0.140000
66 *5:66 *5:67 0.140000
67 *5:67 *5:68 0.140000
68 *5:68 *5:69 0.140000
69 *5:69 *5:70 0.140000
70 *5:70 *5:71 0.140000
71 *5:71 *5:72 0.140000
72 *5:72 *5:73 0.140000
73 *5:73 *5:74 0.140000
74 *5:74 *5:75 0.140000
75 *5:75 *5:76 0.140000
76 *5:76 *5:77 0.140000
77 *5:77 *5:78 0.140000
78 *5:78 *5:79 0.140000
79 *5:79 *5:80 0.140000
80 *5:80 *5:81 0.140000
81 *5:81 *5:82 0.140000
82 *5:82 *5:83 0.140000
83 *5:83 *5:84 0.140000
84 *5:84 *5:85 0.140000
85 *5:85 *5:86 0.140000
86 *5:86 *5:87 0.140000
87 *5:87 *5:88 0.140000
88 *5:88 *5:89 0.140000
89 *5:89 *5:90 0.140000
90 *5:90 *5:91 0.140000
91 *5:91 *5:92 0.140000
92 *5:92 *5:93 0.140000
93 *5:93 *5:94 0.140000
94 *5:94 *5:95 0.140000
95 *5:95 *5:96 0.140000
96 *5:96 *5:97 0.140000
97 *5:97 *5:98 0.140000
98 *5:98 *5:99 0.140000
99 *5:99 *5:100 0.140000
100 *5:100 *5:101 0.140000
101 *5:101 *5:102 0.140000
102 *5:102 *5:103 0.140000
103 *5:103 *5:104 0.140000
104 *5:104 *5:105 0.140000
105 *5:105 *5:106 0.140000
106 *5:106 *5:107 0.140000
107 *5:107 *5:108 0.140000
108 *5:108 *5:109 0.140000
109 *5:109 *5:110 0.140000
110 *5:110 *5:111 0.140000
111 *5:111 *5:112 0.140000
112 *5:112 *5:113 0.140000
113 *5:113 *5:114 0.140000
114 *5:114 *5:115 0.140000
115 *5:115 *5:116 0.140000
116 *5:116 *5:117 0.140000
117 *5:117 *5:118 0.140000
118 *5:118 *5:119 0.140000
119 *5:119 *5:120 0.140000
120 *5:120 *5:121 0.140000
121 *5:121 *5:122 0.140000
122 *5:122 *5:123 0.140000
123 *5:123 *5:124 5.000000
*END

*D_NET *6 1.0348
*CONN
*O n_out:Y
*I b_out:A
*CAP
1 *6:1 0.050000
2 *6:2 0.039200
3 *6:3 0.039200
4 *6:4 0.039200
5 *6:5 0.039200
6 *6:6 0.039200
7 *6:7 0.039200
8 *6:8 0.039200
9 *6:9 0.039200
10 *6:10 0.039200
11 *6:11 0.039200
12 *6:12 0.039200
13 *6:13 0.039200
14 *6:14 0.039200
15 *6:15 0.050000
16 *6:16 0.033600
17 *6:17 0.033600
18 *6:18 0.033600
19 *6:19 0.033600
20 *6:20 0.033600
21 *6:21 0.033600
22 *6:22 0.033600
23 *6:23 0.033600
24 *6:24 0.033600
25 *6:25 0.033600
26 *6:26 0.050000
27 *6:27 0.039200
*RES
1 *6:1 *6:2 5.000000
2 *6:2 *6:3 0.168000
3 *6:3 *6:4 0.168000
4 *6:4 *6:5 0.168000
5 *6:5 *6:6 0.168000
6 *6:6 *6:7 0.168000
7 *6:7 *6:8 0.168000
8 *6:8 *6:9 0.168000
9 *6:9 *6:10 0.168000
10 *6:10 *6:11 0.168000
11 *6:11 *6:12 0.168000
12 *6:12 *6:13 0.168000
13 *6:13 *6:14 0.168000
14 *6:14 *6:15 0.168000
15 *6:15 *6:16 5.000000
16 *6:16 *6:17 0.140000
17 *6:17 *6:18 0.140000
18 *6:18 *6:19 0.140000
19 *6:19 *6:20 0.140000
20 *6:20 *6:21 0.140000
21 *6:21 *6:22 0.140000
22 *6:22 *6:23 0.140000
23 *6:23 *6:24 0.140000
24 *6:24 *6:25 0.140000
25 *6:25 *6:26 0.140000
26 *6:26 *6:27 5.000000
27 *6:27 *6:28 0.168000
*END

